SUMMARY OF JOB INFORMATION
  STEP      INC     ATT  ITRS     TOT TIME     STEP TIME      INC TIME
     3          1     1     2  0.210000E+00  0.100000E-01  0.100000E-01
     3          2     1     2  0.220000E+00  0.200000E-01  0.100000E-01
     3          3     1     2  0.230000E+00  0.300000E-01  0.100000E-01
     3          4     1     2  0.240000E+00  0.400000E-01  0.100000E-01
     3          5     1     2  0.250000E+00  0.500000E-01  0.100000E-01
     3          6     1     2  0.260000E+00  0.600000E-01  0.100000E-01
     3          7     1     2  0.270000E+00  0.700000E-01  0.100000E-01
     3          8     1     2  0.280000E+00  0.800000E-01  0.100000E-01
     3          9     1     2  0.290000E+00  0.900000E-01  0.100000E-01
     3         10     1     2  0.300000E+00  0.100000E+00  0.100000E-01
     3         11     1     2  0.310000E+00  0.110000E+00  0.100000E-01
     3         12     1     2  0.320000E+00  0.120000E+00  0.100000E-01
     3         13     1     2  0.330000E+00  0.130000E+00  0.100000E-01
     3         14     1     2  0.340000E+00  0.140000E+00  0.100000E-01
     3         15     1     2  0.350000E+00  0.150000E+00  0.100000E-01
     3         16     1     2  0.360000E+00  0.160000E+00  0.100000E-01
     3         17     1     2  0.370000E+00  0.170000E+00  0.100000E-01
     3         18     1     2  0.380000E+00  0.180000E+00  0.100000E-01
     3         19     1     2  0.390000E+00  0.190000E+00  0.100000E-01
     3         20     1     2  0.400000E+00  0.200000E+00  0.100000E-01
     3         21     1     2  0.410000E+00  0.210000E+00  0.100000E-01
     3         22     1     2  0.420000E+00  0.220000E+00  0.100000E-01
     3         23     1     2  0.430000E+00  0.230000E+00  0.100000E-01
     3         24     1     2  0.440000E+00  0.240000E+00  0.100000E-01
     3         25     1     2  0.450000E+00  0.250000E+00  0.100000E-01
     3         26     1     2  0.460000E+00  0.260000E+00  0.100000E-01
     3         27     1     2  0.470000E+00  0.270000E+00  0.100000E-01
     3         28     1     2  0.480000E+00  0.280000E+00  0.100000E-01
     3         29     1     2  0.490000E+00  0.290000E+00  0.100000E-01
     3         30     1     2  0.500000E+00  0.300000E+00  0.100000E-01
