SUMMARY OF JOB INFORMATION
  STEP      INC     ATT  ITRS     TOT TIME     STEP TIME      INC TIME
     2          1     1     2  0.110000E+00  0.100000E-01  0.100000E-01
     2          2     1     2  0.120000E+00  0.200000E-01  0.100000E-01
     2          3     1     2  0.130000E+00  0.300000E-01  0.100000E-01
     2          4     1     2  0.140000E+00  0.400000E-01  0.100000E-01
     2          5     1     2  0.150000E+00  0.500000E-01  0.100000E-01
     2          6     1     2  0.160000E+00  0.600000E-01  0.100000E-01
     2          7     1     2  0.170000E+00  0.700000E-01  0.100000E-01
     2          8     1     2  0.180000E+00  0.800000E-01  0.100000E-01
     2          9     1     2  0.190000E+00  0.900000E-01  0.100000E-01
     2         10     1     2  0.200000E+00  0.100000E+00  0.100000E-01
