/*---------------------------------------------------------------------------*\
| =========                 |                                                 |
| \\      /  F ield         | OpenFOAM: The Open Source CFD Toolbox           |
|  \\    /   O peration     | Version:  2012                                  |
|   \\  /    A nd           | Website:  www.openfoam.com                      |
|    \\/     M anipulation  |                                                 |
\*---------------------------------------------------------------------------*/
Build  : 79e353b8-20201222 OPENFOAM=2012
Arch   : "LSB;label=32;scalar=64"
Exec   : potentialFoam -case Fluid
Date   : Feb 26 2021
Time   : 14:18:35
Host   : moon-msi
PID    : 377617
I/O    : uncollated
Case   : /home/moon/PreCICE/tutorials/FSI/flap_perp/OpenFOAM-CalculiX/tut/sim3/Fluid
nProcs : 1
trapFpe: Floating point exception trapping enabled (FOAM_SIGFPE).
fileModificationChecking : Monitoring run-time modified files using timeStampMaster (fileModificationSkew 5, maxFileModificationPolls 20)
allowSystemOperations : Allowing user-supplied system call operations

// * * * * * * * * * * * * * * * * * * * * * * * * * * * * * * * * * * * * * //
Create time

Create mesh for time = 0.2


potentialFlow: Operating solver in PISO mode

Reading velocity field U

Constructing pressure field p

Constructing velocity potential field Phi

No MRF models present


Calculating potential flow
DICPCG:  Solving for Phi, Initial residual = 1, Final residual = 0.000889333, No Iterations 68
DICPCG:  Solving for Phi, Initial residual = 0.00030001, Final residual = 2.90452e-07, No Iterations 65
DICPCG:  Solving for Phi, Initial residual = 3.50802e-06, Final residual = 9.96793e-09, No Iterations 60
DICPCG:  Solving for Phi, Initial residual = 6.57847e-08, Final residual = 9.29635e-09, No Iterations 7
DICPCG:  Solving for Phi, Initial residual = 9.56367e-09, Final residual = 9.56367e-09, No Iterations 0
DICPCG:  Solving for Phi, Initial residual = 9.56367e-09, Final residual = 9.56367e-09, No Iterations 0
DICPCG:  Solving for Phi, Initial residual = 9.56367e-09, Final residual = 9.56367e-09, No Iterations 0
DICPCG:  Solving for Phi, Initial residual = 9.56367e-09, Final residual = 9.56367e-09, No Iterations 0
DICPCG:  Solving for Phi, Initial residual = 9.56367e-09, Final residual = 9.56367e-09, No Iterations 0
DICPCG:  Solving for Phi, Initial residual = 9.56367e-09, Final residual = 9.56367e-09, No Iterations 0
DICPCG:  Solving for Phi, Initial residual = 9.56367e-09, Final residual = 9.56367e-09, No Iterations 0
Continuity error = 1.5559e-06
Interpolated velocity error = 0.00170439
ExecutionTime = 0.02 s  ClockTime = 0 s

End

