/*---------------------------------------------------------------------------*\
| =========                 |                                                 |
| \\      /  F ield         | OpenFOAM: The Open Source CFD Toolbox           |
|  \\    /   O peration     | Version:  2012                                  |
|   \\  /    A nd           | Website:  www.openfoam.com                      |
|    \\/     M anipulation  |                                                 |
\*---------------------------------------------------------------------------*/
Build  : 79e353b8-20201222 OPENFOAM=2012
Arch   : "LSB;label=32;scalar=64"
Exec   : blockMesh -case Fluid
Date   : Feb 26 2021
Time   : 14:00:02
Host   : moon-msi
PID    : 351986
I/O    : uncollated
Case   : /home/moon/PreCICE/tutorials/FSI/flap_perp/OpenFOAM-CalculiX/tut/sim2/Fluid
nProcs : 1
trapFpe: Floating point exception trapping enabled (FOAM_SIGFPE).
fileModificationChecking : Monitoring run-time modified files using timeStampMaster (fileModificationSkew 5, maxFileModificationPolls 20)
allowSystemOperations : Allowing user-supplied system call operations

// * * * * * * * * * * * * * * * * * * * * * * * * * * * * * * * * * * * * * //
Create time

Creating block mesh from "system/blockMeshDict"
Creating block edges
No non-planar block faces defined
Creating topology blocks
Creating topology patches

Creating block mesh topology

Check topology

	Basic statistics
		Number of internal faces : 4
		Number of boundary faces : 22
		Number of defined boundary faces : 22
		Number of undefined boundary faces : 0
	Checking patch -> block consistency

Creating block offsets
Creating merge list (topological search)...
Deleting polyMesh directory "constant/polyMesh"

Creating polyMesh from blockMesh
Creating patches
Creating cells
Creating points with scale 1
    Block 0 cell size :
        i : 0.136132 .. 0.0680662
        j : 0.0666667 .. 0.0666667
        k : 0.3 .. 0.3

    Block 1 cell size :
        i : 0.0680662 .. 0.136132
        j : 0.0666667 .. 0.0666667
        k : 0.3 .. 0.3

    Block 2 cell size :
        i : 0.136132 .. 0.0680662
        j : 0.0692199 .. 0.13844
        k : 0.3 .. 0.3

    Block 3 cell size :
        i : 0.0333333 .. 0.0333333
        j : 0.0692199 .. 0.13844
        k : 0.3 .. 0.3

    Block 4 cell size :
        i : 0.0680662 .. 0.136132
        j : 0.0692199 .. 0.13844
        k : 0.3 .. 0.3


There are no merge patch pairs

Writing polyMesh with 0 cellZones
----------------
Mesh Information
----------------
  boundingBox: (-3 0 0) (3 0.3 4)
  nPoints: 5828
  nCells: 2790
  nFaces: 11283
  nInternalFaces: 5457
----------------
Patches
----------------
  patch 0 (start: 5457 size: 45) name: inlet
  patch 1 (start: 5502 size: 45) name: outlet
  patch 2 (start: 5547 size: 33) name: flap
  patch 3 (start: 5580 size: 63) name: upperWall
  patch 4 (start: 5643 size: 60) name: lowerWall
  patch 5 (start: 5703 size: 5580) name: frontAndBack

End

