/*---------------------------------------------------------------------------*\
| =========                 |                                                 |
| \\      /  F ield         | OpenFOAM: The Open Source CFD Toolbox           |
|  \\    /   O peration     | Version:  2012                                  |
|   \\  /    A nd           | Website:  www.openfoam.com                      |
|    \\/     M anipulation  |                                                 |
\*---------------------------------------------------------------------------*/
Build  : 79e353b8-20201222 OPENFOAM=2012
Arch   : "LSB;label=32;scalar=64"
Exec   : checkMesh -case Fluid
Date   : Feb 26 2021
Time   : 14:00:02
Host   : moon-msi
PID    : 351987
I/O    : uncollated
Case   : /home/moon/PreCICE/tutorials/FSI/flap_perp/OpenFOAM-CalculiX/tut/sim2/Fluid
nProcs : 1
trapFpe: Floating point exception trapping enabled (FOAM_SIGFPE).
fileModificationChecking : Monitoring run-time modified files using timeStampMaster (fileModificationSkew 5, maxFileModificationPolls 20)
allowSystemOperations : Allowing user-supplied system call operations

// * * * * * * * * * * * * * * * * * * * * * * * * * * * * * * * * * * * * * //
Create time

Create mesh for time = 0

Time = 0

Mesh stats
    points:           5828
    internal points:  0
    faces:            11283
    internal faces:   5457
    cells:            2790
    faces per cell:   6
    boundary patches: 6
    point zones:      0
    face zones:       0
    cell zones:       0

Overall number of cells of each type:
    hexahedra:     2790
    prisms:        0
    wedges:        0
    pyramids:      0
    tet wedges:    0
    tetrahedra:    0
    polyhedra:     0

Checking topology...
    Boundary definition OK.
    Cell to face addressing OK.
    Point usage OK.
    Upper triangular ordering OK.
    Face vertices OK.
    Number of regions: 1 (OK).

Checking patch topology for multiply connected surfaces...
    Patch               Faces    Points   Surface topology                  
    inlet               45       92       ok (non-closed singly connected)  
    outlet              45       92       ok (non-closed singly connected)  
    flap                33       68       ok (non-closed singly connected)  
    upperWall           63       128      ok (non-closed singly connected)  
    lowerWall           60       124      ok (non-closed singly connected)  
    frontAndBack        5580     5828     ok (non-closed singly connected)  

Checking faceZone topology for multiply connected surfaces...
    No faceZones found.

Checking basic cellZone addressing...
    No cellZones found.

Checking geometry...
    Overall domain bounding box (-3 0 0) (3 0.3 4)
    Mesh has 2 geometric (non-empty/wedge) directions (1 0 1)
    Mesh has 2 solution (non-empty) directions (1 0 1)
    All edges aligned with or perpendicular to non-empty directions.
    Boundary openness (3.69904e-18 1.17655e-15 -7.01543e-18) OK.
    Max cell openness = 1.14138e-16 OK.
    Max aspect ratio = 4.15319 OK.
    Minimum face area = 0.00230733. Maximum face area = 0.0415319.  Face area magnitudes OK.
    Min volume = 0.000692199. Max volume = 0.00565384.  Total volume = 7.17.  Cell volumes OK.
    Mesh non-orthogonality Max: 0 average: 0
    Non-orthogonality check OK.
    Face pyramids OK.
    Max skewness = 2.90807e-14 OK.
    Coupled point location match (average 0) OK.

Mesh OK.

Time = 0.1


Checking geometry...
    Overall domain bounding box (-3 0 0) (3 0.3 4)
    Mesh has 2 geometric (non-empty/wedge) directions (1 0 1)
    Mesh has 2 solution (non-empty) directions (1 0 1)
    All edges aligned with or perpendicular to non-empty directions.
    Boundary openness (-5.93118e-18 3.46279e-15 -2.29594e-18) OK.
    Max cell openness = 2.00499e-16 OK.
    Max aspect ratio = 4.1532 OK.
    Minimum face area = 0.00230283. Maximum face area = 0.041532.  Face area magnitudes OK.
    Min volume = 0.000690849. Max volume = 0.00565375.  Total volume = 7.16999.  Cell volumes OK.
    Mesh non-orthogonality Max: 0.667513 average: 0.0777962
    Non-orthogonality check OK.
    Face pyramids OK.
    Max skewness = 0.0124702 OK.
    Coupled point location match (average 0) OK.

Mesh OK.

End

